[TITLE]


[JUNCTIONS]
;ID              	Elev        	Demand      	Pattern         
 J65539          	121.7011    	0.17        	Pat_default     	;	
 J32770          	126.33      	0           	                	;	
 J65541          	120.7661    	0.36        	Pat_default     	;	
 J5              	131.0906    	0           	s13b            	;	
 J49158          	120.3952    	0.57        	Pat_default     	;	
 J16392          	125.7326    	0           	Pat_default     	;	
 J16393          	121.6111    	0           	                	;	
 J65550          	129.948     	0           	                	;	
 J16400          	121.5776    	0           	                	;	
 J49169          	129.0046    	0.94        	Pat_default     	;	
 J32786          	122.1818    	0           	                	;	
 J49170          	110.9607    	0.1         	s10c            	;sw_zasuwa(2036)	
 J49171          	114.2938    	0.25        	Pat_default     	;	
 J32787          	124.2442    	0.14        	Pat_default     	;	
 J16404          	131.742     	0           	Pat_default     	;	
 J49172          	127.8631    	1.19        	Pat_default     	;	
 J21             	131.8797    	0           	s13b            	;	
 J22             	131.8863    	0           	s13b            	;	
 J49174          	126.5248    	1.54        	Pat_default     	;	
 J49180          	124.64      	1.97        	Pat_default     	;	
 J29             	130.9247    	0           	s13b            	;	
 J65566          	127.7592    	0.62        	s45c            	;	
 J32801          	133.2852    	0.29        	Pat_default     	;	
 J16418          	121.2448    	0           	                	;	
 J65578          	136.3434    	0.05        	Pat_default     	;	
 J49196          	125.7123    	0.28        	s45c            	;	
 J49203          	123.7601    	0           	                	;	
 J65590          	134.4759    	0           	Pat_default     	;	
 J16440          	121.3731    	0           	                	;	
 J49208          	126.4548    	2.82        	Pat_default     	;sw_zasuwa(5832)	
 J49209          	124.3714    	0.13        	Pat_default     	;sw_zasuwa(5116)	
 J16442          	129.8782    	0           	                	;	
 J65597          	127.4541    	0.25        	Pat_default     	;	
 J65596          	130.2119    	2.62        	s13b            	;	
 J49214          	128.8791    	0.6599999999999999	Pat_default     	;sw_zasuwa(7053)	
 J65598          	123.9711    	0.37        	Pat_default     	;	
 J16448          	125.6235    	0           	Pat_default     	;	
 J16449          	131.8163    	0           	Pat_default     	;	
 J65604          	123.5489    	0           	                	;	
 J65607          	127.4818    	0.16        	Pat_default     	;sw_zasuwa(5977)	
 J49225          	131.1603    	3.23        	Pat_default     	;	
 J65613          	121.0494    	0           	                	;	
 J49232          	123.052     	0           	                	;	
 J49233          	117.7979    	0.25        	Pat_default     	;sw_zasuwa(83)	
 J32849          	118.4186    	1.33        	Pat_default     	;	
 J49235          	130.0053    	0.45        	Pat_default     	;	
 J16468          	125.6707    	0           	Pat_default     	;	
 J65621          	121.51      	0.4         	s11c            	;	
 J65620          	123.3854    	0           	                	;	
 J86             	131.5336    	0           	s13b            	;	
 J65622          	119.8495    	0.15        	s11c            	;	
 J65625          	125.4422    	0.21        	s45c            	;	
 J16478          	125.6459    	3.49        	Pat_default     	;	
 J49247          	124.2983    	0.34        	s45c            	;sw_zasuwa(1384)	
 J49252          	124.4573    	0.09        	Pat_default     	;	
 J49255          	122.9036    	0           	                	;	
 J16488          	129.7738    	0           	                	;	
 J65643          	129.6588    	0           	s13b            	;	
 J65642          	117.3591    	0.63        	Pat_default     	;	
 J65644          	112.9504    	0.36        	s10c            	;	
 J65647          	124.8172    	0           	s45c            	;	
 J49264          	119.2957    	1.1300000000000001	Pat_default     	;sw_zasuwa(402)	
 J118            	134.1122    	0           	s13b            	;	
 J16505          	121.6747    	0           	                	;	
 J65659          	126.1517    	0.8         	Pat_default     	;	
 J16507          	121.9752    	0           	                	;	
 J49276          	122.6377    	0           	                	;sw_zasuwa(4909)	
 J49277          	116.6998    	0.34        	Pat_default     	;sw_zasuwa(297)	
 J32893          	111.9715    	0           	s10c            	;	
 J65665          	126.818     	0.15        	s45c            	;	
 J32899          	118.8105    	0.35        	Pat_default     	;	
 J131            	124.3738    	0.00        	s45c            	;	
 J49286          	120.8823    	0.24        	s123            	;	
 J16518          	129.9905    	0           	                	;	
 J49292          	123.0848    	0           	s45c            	;	
 J49297          	125.8883    	0.2         	Pat_default     	;sw_zasuwa(5527)	
 J16529          	121.6163    	0           	                	;	
 J146            	125.2203    	0.42        	s45c            	;	
 J65682          	123.8842    	0           	                	;	
 J65693          	123.3462    	0.45        	Pat_default     	;	
 J49312          	128.3587    	0           	                	;	
 J16544          	131.8072    	0           	Pat_default     	;	
 J16545          	122.0639    	0           	                	;	
 J49316          	126.4561    	0           	                	;	
 J167            	126.3352    	0.00        	s45c            	;	
 J16551          	122.2437    	0           	                	;	
 J49320          	123.1756    	0.09        	Pat_default     	;	
 J32937          	125.0672    	1.78        	Pat_default     	;	
 J65704          	130.5654    	0.37        	s13b            	;sw_zasuwa(7417)	
 J49327          	124.0011    	1.19        	Pat_default     	;	
 J49328          	129.1061    	14.98       	Pat_default     	;	
 J179            	124.8583    	0           	s45c            	;	
 J49331          	111.1637    	0.35        	s4anew          	;	
 J65723          	123.3656    	0.19        	Pat_default     	;	
 J186            	126.7853    	0.00        	s45c            	;	
 J49338          	123.9854    	0.18        	s45c            	;	
 J65725          	130.6672    	0.73        	Pat_default     	;	
 J49341          	111.4269    	0.28        	s10c            	;	
 J190            	131.4847    	0           	s13b            	;	
 J65729          	127.8152    	0.00        	s45c            	;sw_zasuwa(2668)	
 J32962          	121.2009    	0.58        	Pat_default     	;	
 J16578          	131.7779    	0           	Pat_default     	;	
 J65731          	111.1126    	0.17        	s10c            	;	
 J65730          	126.8263    	0.04        	s45c            	;	
 J49347          	129.409     	0.34        	s45c            	;	
 J49348          	127.9705    	0           	                	;	
 J65735          	125.7814    	0.49        	s13b            	;	
 J65737          	126.712     	0           	s45c            	;	
 J16584          	122.1988    	0           	                	;	
 J201            	133.7533    	0           	s13b            	;	
 J65739          	123.3061    	29.38       	Pat_default     	;	
 J65738          	127.3897    	0           	                	;	
 J32975          	127.828     	0           	Pat_default     	;	
 J16591          	123.8277    	0           	Pat_default     	;	
 J32976          	111.2602    	0.07        	s10c            	;	
 J49361          	130.1653    	0.9299999999999999	Pat_default     	;sw_zasuwa(5450)	
 J65752          	115.4765    	0           	                	;	
 J65755          	123.2921    	0.43        	Pat_default     	;	
 J49370          	123.357     	0.38        	Pat_default     	;	
 J65754          	126.8517    	0.53        	Pat_default     	;	
 J49373          	111.1583    	0.15        	s4anew          	;	
 J65756          	129.0239    	0.30        	s45c            	;sw_zasuwa(1236)	
 J65758          	123.4549    	0           	                	;	
 J65765          	110.6489    	0.25        	s4anew          	;	
 J65764          	129.726     	1.1800000000000002	Pat_default     	;	
 J32997          	118.3536    	0.45        	Pat_default     	;	
 J65767          	130.7897    	0.37        	Pat_default     	;	
 J49383          	126.8716    	0.31        	Pat_default     	;sw_zasuwa(5661)	
 J65769          	126.9155    	1.28        	Pat_default     	;	
 J232            	124.196     	0.00        	s45c            	;	
 J49387          	132.2128    	5           	Pat_default     	;sw_zasuwa(5837)	
 J65772          	129.0534    	0.8500000000000001	s45c            	;	
 J239            	124.7019    	0           	s45c            	;	
 J16624          	121.1085    	0           	s123            	;	
 J65779          	126.3016    	1.19        	s45c            	;sw_zasuwa(1211)	
 J33012          	115.8734    	0.4         	Pat_default     	;	
 J49396          	131.6743    	0.02        	s13b            	;	
 J65782          	119.6017    	0.24        	Pat_default     	;	
 J49399          	124.7838    	0           	                	;	
 J49400          	121.1819    	0.28        	Pat_default     	;	
 J33017          	136.1814    	0           	Pat_default     	;	
 J49401          	128.1047    	0.41        	s13b            	;	
 J16635          	130.4469    	0           	                	;	
 J65789          	129.3649    	0.8200000000000001	Pat_default     	;	
 J65788          	123.7298    	0           	s45c            	;sw_zasuwa(8871)	
 J49409          	123.0303    	4.88        	Pat_default     	;	
 J65795          	130.7107    	0.37        	Pat_default     	;	
 J16643          	130.4794    	0           	                	;	
 J16644          	130.49      	0           	                	;	
 J49417          	116.8964    	0.44        	Pat_default     	;	
 J65803          	122.1696    	0.07        	s11c            	;	
 J16650          	121.5578    	0           	                	;	
 J65802          	126.702     	0           	Pat_default     	;	
 J49420          	130.5343    	0.25        	Pat_default     	;	
 J49423          	123.9006    	0.18        	s45c            	;	
 J272            	130.93      	0           	s13b            	;	
 J49425          	128.9191    	0.31        	Pat_default     	;	
 J49426          	120.8065    	0.53        	Pat_default     	;	
 J33042          	123.8804    	0.05        	Pat_default     	;	
 J276            	132.0632    	0           	s13b            	;	
 J33044          	130.5821    	0.22        	Pat_default     	;	
 J65812          	129.7519    	0.58        	s13b            	;	
 J49429          	132.4772    	0.44        	s13b            	;sw_zasuwa(3835)	
 J33047          	123.1401    	1.27        	Pat_default     	;	
 J65816          	126.0252    	0           	                	;	
 J33049          	127.4995    	0.39        	Pat_default     	;	
 J16668          	121.0704    	0           	                	;	
 J49437          	121.0818    	0           	                	;	
 J287            	124.7923    	0           	s45c            	;	
 J65822          	129.5411    	0.12        	s13b            	;	
 J49439          	127.6305    	0.06        	Pat_default     	;sw_zasuwa(3971)	
 J289            	133.2111    	0           	s13b            	;	
 J16674          	121.108     	0           	                	;	
 J65829          	129.6449    	0.57        	Pat_default     	;sw_zasuwa(7220)	
 J65831          	109.2002    	0           	s4anew          	;	
 J65830          	128.2928    	0           	Pat_default     	;	
 J65833          	124.3735    	0.39        	Pat_default     	;	
 J49450          	122.5495    	1.67        	Pat_default     	;	
 J65835          	129.8443    	0.87        	Pat_default     	;	
 J65845          	123.6139    	0.73        	Pat_default     	;	
 J49462          	123.8689    	0.37        	Pat_default     	;	
 J65847          	129.1629    	0.20        	s45c            	;	
 J49463          	126.4764    	0           	                	;	
 J65848          	136.1324    	0.02        	Pat_default     	;	
 J16697          	120.8255    	0           	s123            	;	
 J65851          	109.0756    	0.2         	s4anew          	;	
 J65850          	119.5783    	0.33        	s123            	;	
 J49469          	111.0828    	0.37        	s10c            	;	
 J49472          	127.5827    	0.22        	Pat_default     	;	
 J65857          	125.7671    	0.3         	s45c            	;	
 J65859          	128.1066    	0.40        	s45c            	;sw_zasuwa(1953)	
 J49475          	112.0381    	0.34        	s10c            	;	
 J65866          	129.1621    	0.13        	Pat_default     	;	
 J65869          	128.9245    	0           	                	;sw_zasuwa(4556)	
 J33101          	129.1179    	0           	s13b            	;	
 J49486          	129.271     	0.8200000000000001	Pat_default     	;	
 J65870          	132.7329    	0.38        	s13b            	;	
 J65872          	132.0323    	0.05        	Pat_default     	;	
 J33108          	120.4154    	0.11        	Pat_default     	;	
 J65879          	124.1254    	0.76        	Pat_default     	;	
 J65881          	117.4297    	0.28        	s123            	;	
 J16729          	130.5902    	0           	                	;	
 J345            	130.5502    	0           	s13b            	;	
 J65880          	128.4019    	0.20        	s45c            	;	
 J65883          	123.3506    	0.5         	Pat_default     	;	
 J65882          	120.8686    	0.4         	s123            	;	
 J49499          	122.5134    	0.12        	s45c            	;	
 J33115          	130.5213    	0.35        	Pat_default     	;	
 J49500          	110.8026    	0.27        	s4anew          	;sw_zasuwa(1642)	
 J65885          	119.7363    	0.35        	Pat_default     	;	
 J65889          	111.5677    	0.7         	s10c            	;	
 J354            	131.1128    	0           	s13b            	;sw_zasuwa(7954)	
 J65892          	122.1593    	0           	                	;	
 J16742          	130.1956    	0           	                	;	
 J33126          	122.0132    	0.42        	Pat_default     	;	
 J359            	133.0219    	0           	s13b            	;	
 J65896          	129.0589    	0.12        	s45c            	;	
 J49514          	127.4607    	0.43        	Pat_default     	;sw_zasuwa(5006)	
 J65899          	136.4293    	1.9100000000000001	Pat_default     	;	
 J49515          	121.4353    	0.18        	Pat_default     	;	
 J65898          	121.9506    	1.4         	Pat_default     	;	
 J49517          	131.1697    	0.43        	s13b            	;sw_zasuwa(3784)	
 J49518          	123.5649    	1.38        	Pat_default     	;	
 J49520          	122.0889    	0.09        	Pat_default     	;	
 J65905          	127.3725    	0.19        	s45c            	;	
 J65906          	126.3169    	0.55        	Pat_default     	;	
 J374            	125.219     	0.00        	s45c            	;sw_zasuwa(1383)	
 J49527          	128.0401    	0.02        	Pat_default     	;	
 J376            	125.2671    	0.00        	s45c            	;	
 J65913          	127.2572    	0.08        	s45c            	;sw_zasuwa(2665)	
 J65912          	132.8739    	0.03        	Pat_default     	;	
 J49529          	120.73      	0.11        	s11c            	;	
 J49531          	123.0752    	0.16        	Pat_default     	;sw_zasuwa(5317)	
 J380            	124.1454    	0           	s45c            	;	
 J33148          	123.9994    	0           	                	;	
 J65916          	125.6745    	0.37        	s45c            	;	
 J49534          	130.0254    	0.47        	Pat_default     	;sw_zasuwa(7310)	
 J65921          	131.8167    	10.25       	Pat_default     	;	
 J33154          	126.2874    	0           	                	;	
 J33157          	120.2748    	0.49        	Pat_default     	;	
 J49542          	123.2418    	0.09        	Pat_default     	;	
 J391            	125.3451    	0.58        	s45c            	;	
 J65932          	127.0025    	0.24        	Pat_default     	;sw_zasuwa(7863)	
 J49549          	118.8262    	0.11        	Pat_default     	;	
 J65935          	124.9001    	0.1         	Pat_default     	;	
 J65934          	123.878     	1.02        	Pat_default     	;	
 J49557          	121.3714    	0           	                	;	
 J33174          	117.1534    	0.21        	Pat_default     	;	
 J65947          	120.8249    	0.54        	s123            	;	
 J49563          	121.9309    	0.1         	s11c            	;	
 J65952          	123.2811    	0.95        	s45c            	;	
 J420            	132.7253    	0           	s13b            	;	
 J65957          	120.7959    	0.13        	Pat_default     	;	
 J65956          	126.0969    	0.4         	s13b            	;sw_zasuwa(6977)	
 J49574          	117.8885    	0           	                	;	
 J16806          	121.1296    	0           	                	;	
 J424            	132.6515    	0           	s13b            	;	
 J49581          	120.3397    	0.29        	s123            	;sw_zasuwa(12)	
 J65967          	127.4636    	0.34        	Pat_default     	;	
 J65966          	119.4171    	0.61        	Pat_default     	;	
 J431            	124.4287    	0           	s45c            	;	
 J49584          	113.4086    	0.2         	s10c            	;	
 J33201          	121.2757    	0.59        	s45c            	;	
 J65971          	128.823     	1.21        	s45c            	;	
 J434            	130.1467    	0           	s13b            	;	
 J49590          	112.7843    	0.63        	s10c            	;	
 J439            	132.5575    	0           	s13b            	;	
 J33210          	128.2918    	0           	s13b            	;	
 J33212          	129.2217    	0.10        	s45c            	;	
 J49597          	124.1431    	0.22        	Pat_default     	;	
 J16830          	129.5826    	0           	                	;	
 J65985          	131.3396    	0           	Pat_default     	;	
 J65984          	120.0378    	0.35        	s123            	;	
 J49602          	121.3116    	0           	s11c            	;	
 J451            	131.8491    	0           	s13b            	;	
 J65988          	118.6269    	0.35        	Pat_default     	;	
 J65992          	127.6703    	0.70        	s45c            	;sw_zasuwa(2666)	
 J33226          	123.1533    	0           	                	;	
 J33229          	130.1474    	0.33        	Pat_default     	;	
 J65996          	117.2445    	0           	s123            	;	
 J49614          	127.1685    	0.24        	Pat_default     	;sw_zasuwa(4205)	
 J16848          	129.4194    	0           	                	;	
 J49621          	128.3769    	0           	                	;	
 J66006          	123.2382    	0.24        	Pat_default     	;	
 J49625          	121.1304    	0.34        	Pat_default     	;sw_zasuwa(350)	
 J66010          	134.3908    	0.31        	Pat_default     	;	
 J49627          	129.1971    	0           	Pat_default     	;	
 J66012          	124.9856    	0.19        	s13b            	;	
 J33246          	122.4218    	0.37        	Pat_default     	;	
 J66014          	133.8305    	0           	Pat_default     	;sw_zasuwa(7028)	
 J479            	123.7201    	0           	s45c            	;	
 J33247          	128.2722    	0           	s13b            	;	
 J66017          	122.1245    	0.34        	Pat_default     	;	
 J49636          	126.5877    	0.8         	Pat_default     	;sw_zasuwa(4144)	
 J33254          	122.3315    	0           	                	;	
 J16870          	120.3824    	0           	s123            	;	
 J66028          	130.9246    	0           	                	;	
 J49651          	123.4628    	7.45        	Pat_default     	;	
 J66039          	121.5703    	0.07        	Pat_default     	;	
 J66038          	133.4274    	0           	s13b            	;sw_zasuwa(6936)	
 J49657          	128.7033    	0.2         	Pat_default     	;sw_zasuwa(3690)	
 J49659          	124.8694    	6.31        	Pat_default     	;	
 J49661          	124.1475    	0.44        	Pat_default     	;sw_zasuwa(4935)	
 J49664          	127.1859    	0           	Pat_default     	;sw_zasuwa(8385)	
 J16897          	129.1161    	0           	                	;	
 J66051          	134.9094    	1.1         	Pat_default     	;	
 J33282          	121.2539    	0.19        	Pat_default     	;	
 J33286          	124.3951    	0.5800000000000001	Pat_default     	;	
 J49672          	120.2013    	0           	s123            	;	
 J66059          	130.8133    	0.44        	s13b            	;	
 J66058          	112.3924    	0.26        	s4anew          	;	
 J66061          	124.3934    	1.29        	Pat_default     	;	
 J49677          	128.1355    	0.2         	Pat_default     	;	
 J526            	123.4572    	0           	s45c            	;	
 J49679          	121.2588    	0.43        	Pat_default     	;	
 J16912          	129.6198    	0           	                	;	
 J33297          	121.2693    	0.62        	Pat_default     	;	
 J66069          	127.7335    	0.77        	s45c            	;	
 J66070          	130.9545    	0.12        	Pat_default     	;	
 J33304          	129.4188    	0.07        	s13b            	;	
 J66075          	133.8918    	0.46        	Pat_default     	;	
 J49691          	125.86      	0.68        	Pat_default     	;sw_zasuwa(4505)	
 J49693          	127.4934    	0.33        	Pat_default     	;	
 J66081          	126.7142    	1.32        	Pat_default     	;	
 J16929          	129.4843    	0           	                	;	
 J66080          	117.8872    	0.4         	s123            	;	
 J66091          	129.9252    	0.55        	Pat_default     	;	
 J66096          	115.7721    	0.02        	Pat_default     	;	
 J66100          	123.3656    	0.25        	Pat_default     	;	
 J66102          	130.3108    	0.14        	s13b            	;	
 J66105          	129.2727    	0.40        	s45c            	;	
 J49723          	123.2755    	0.64        	s45c            	;	
 J66109          	129.075     	0.28        	s45c            	;sw_zasuwa(2223)	
 J49725          	124.8904    	0.37        	Pat_default     	;sw_zasuwa(4928)	
 J16959          	129.2839    	1.28        	Pat_default     	;	
 J575            	124.2933    	0           	s45c            	;	
 J66115          	128.8919    	1.50        	s45c            	;	
 J66117          	129.3534    	0.3         	Pat_default     	;	
 J49733          	122.7844    	0.22        	Pat_default     	;	
 J16965          	129.5889    	0           	                	;	
 J66119          	127.3166    	0.04        	Pat_default     	;	
 J66124          	125.7708    	0           	s13b            	;	
 J66129          	124.5845    	1.0699999999999998	s45c            	;	
 J66128          	127.5036    	0           	Pat_default     	;	
 J49745          	118.8467    	0.02        	Pat_default     	;	
 J49747          	123.1083    	0.1         	Pat_default     	;	
 J33367          	120.4065    	0.27        	Pat_default     	;	
 J66136          	120.3576    	0.62        	Pat_default     	;sw_zasuwa(3257)	
 J49753          	119.7172    	0.27        	Pat_default     	;	
 J49755          	121.942     	0.15        	Pat_default     	;	
 J604            	125.9098    	0.00        	s45c            	;	
 J66143          	123.3886    	0           	s45c            	;	
 J66145          	120.7773    	0.8899999999999999	Pat_default     	;	
 J66144          	126.3058    	0.38        	s45c            	;	
 J49763          	128.9438    	0.2         	Pat_default     	;	
 J66148          	122.0751    	0.45        	Pat_default     	;sw_zasuwa(2962)	
 J16999          	121.379     	0           	                	;	
 J33383          	130.6728    	0.48000000000000004	Pat_default     	;	
 J66150          	129.6911    	0.12        	Pat_default     	;sw_zasuwa(7064)	
 J66153          	130.293     	1.35        	Pat_default     	;	
 J49768          	122.6345    	0           	                	;	
 J33387          	131.9222    	0.23        	Pat_default     	;	
 J66161          	129.8328    	0.17        	Pat_default     	;	
 J49779          	126.9155    	0           	s45c            	;sw_zasuwa(1346)	
 J628            	122.2659    	0           	s45c            	;	
 J33398          	123.3121    	0.37        	Pat_default     	;	
 J631            	122.2667    	0           	s45c            	;	
 J49791          	111.3804    	0.12        	s10c            	;	
 J66177          	130.2796    	0.42        	s13b            	;sw_zasuwa(7212)	
 J49795          	121.8064    	0.37        	s123            	;	
 J49798          	110.3895    	0.02        	s10c            	;sw_zasuwa(2124)	
 J66185          	124.9577    	0.24        	s45c            	;sw_zasuwa(7428)	
 J17035          	121.1412    	0           	                	;	
 J49803          	118.7987    	0.4         	Pat_default     	;sw_zasuwa(6335)	
 J66195          	128.9072    	0.08        	s45c            	;	
 J49810          	130.0274    	0           	                	;	
 J49812          	128.1653    	0.11        	Pat_default     	;	
 J49817          	123.7534    	0.25        	Pat_default     	;	
 J49820          	124.9105    	0.29        	Pat_default     	;	
 J17057          	120.0513    	0           	s123            	;	
 J49825          	121.3783    	0.83        	Pat_default     	;sw_zasuwa(7361)	
 J66208          	111.7242    	0.2         	s10c            	;	
 J49826          	127.641     	0.27        	Pat_default     	;	
 J49827          	126.6231    	0.01        	Pat_default     	;	
 J66212          	121.8848    	0.25        	s123            	;	
 J66215          	129.2758    	0.28        	s45c            	;	
 J49830          	130.2389    	0.32        	Pat_default     	;sw_zasuwa(4575)	
 J66214          	119.4243    	0.02        	Pat_default     	;	
 J49837          	131.1895    	0.14        	Pat_default     	;	
 J66223          	128.5562    	0.25        	Pat_default     	;	
 J686            	124.4558    	0           	s45c            	;	
 J33454          	124.1516    	0.38        	Pat_default     	;	
 J66222          	123.5053    	1.0499999999999998	Pat_default     	;	
 J17077          	126.4658    	0           	Pat_default     	;	
 J66228          	129.8034    	0.34        	Pat_default     	;	
 J49846          	121.2033    	0           	                	;	
 J66233          	126.5473    	0.6100000000000001	s45c            	;	
 J33464          	129.8639    	0           	Pat_default     	;	
 J66232          	122.2335    	0.98        	Pat_default     	;sw_zasuwa(348)	
 J49852          	125.7013    	0.45        	Pat_default     	;sw_zasuwa(4553)	
 J49853          	123.8333    	0.66        	Pat_default     	;	
 J49858          	124.7001    	0.76        	Pat_default     	;	
 J66249          	112.6138    	0           	s10c            	;	
 J33485          	121.7998    	0           	s123            	;	
 J17101          	125.9979    	0           	                	;	
 J718            	131.4882    	0           	s13b            	;	
 J17112          	130.2078    	0.36        	Pat_default     	;	
 J17114          	121.0992    	0           	                	;	
 J33499          	125.5468    	0           	s45c            	;	
 J49889          	128.7759    	0.38        	Pat_default     	;	
 J49890          	126.4699    	2.06        	Pat_default     	;	
 J739            	122.5481    	0           	s45c            	;	
 J66274          	125.405     	0.12        	Pat_default     	;	
 J33508          	120.2321    	0.52        	Pat_default     	;	
 J740            	122.5208    	0           	s45c            	;	
 J33509          	125.2382    	0.24        	Pat_default     	;	
 J66279          	127.4324    	0.22        	Pat_default     	;sw_zasuwa(3988)	
 J66281          	119.7892    	0.23        	s11c            	;	
 J49898          	121.2103    	0.4         	Pat_default     	;	
 J33515          	127.8342    	0           	s13b            	;	
 J66282          	118.7346    	0.16        	s123            	;	
 J49905          	131.5232    	0.53        	s13b            	;	
 J33523          	134.492     	0.24        	Pat_default     	;	
 J17142          	126.4855    	0           	Pat_default     	;	
 J66295          	123.7461    	0.49        	Pat_default     	;	
 J759            	125.4944    	0.00        	s45c            	;	
 J17145          	121.2727    	0           	                	;	
 J49913          	129.9072    	12.81       	Pat_default     	;	
 J33535          	119.4786    	0.11        	Pat_default     	;	
 J49922          	129.0616    	0.42        	Pat_default     	;sw_zasuwa(4335)	
 J33539          	110.8744    	0.27        	s10c            	;	
 J66309          	133.5452    	0.8300000000000001	s13b            	;	
 J33542          	128.4758    	0           	Pat_default     	;	
 J66311          	130.3493    	0.34        	Pat_default     	;	
 J49926          	122.5748    	0.07        	s45c            	;sw_zasuwa(1547)	
 J66310          	130.1867    	3.17        	Pat_default     	;	
 J66313          	109.2185    	0           	s4anew          	;	
 J49930          	124.9433    	0           	                	;	
 J17165          	121.1083    	0           	                	;	
 J66319          	126.774     	2.17        	Pat_default     	;	
 J66318          	129.2658    	0.08        	s45c            	;	
 J17172          	121.008     	0           	                	;	
 J49941          	125.2255    	0           	                	;	
 J17174          	126.016     	0           	                	;	
 J49944          	122.8097    	0.68        	Pat_default     	;sw_zasuwa(1004)	
 J66329          	125.02      	0.27        	Pat_default     	;	
 J33564          	128.7759    	0.66        	Pat_default     	;	
 J66333          	122.0561    	0.71        	Pat_default     	;	
 J66334          	125.6281    	0.55        	Pat_default     	;	
 J17184          	130.7348    	0           	                	;	
 J66336          	129.8247    	0.04        	Pat_default     	;	